LTspice 26.0.1 for Windows
Circuit: C:\Users\HP - Victus\Desktop\Rnd\BLDC_Motor_Driver\Hardware\Simulation\Draft1.net
Start Time: Sat Feb  7 15:13:16 2026
solver = Normal
Maximum thread count: 12
tnom = 27
temp = 27
method = trap
Direct Newton iteration succeeded in finding operating point.
Total elapsed time: 0.109 seconds.

Files loaded:
C:\Users\HP - Victus\Desktop\Rnd\BLDC_Motor_Driver\Hardware\Simulation\Draft1.net
C:\Users\HP - Victus\AppData\Local\LTspice\lib\sub\ADI.lib

